data_urea
_audit_creation_date              2014-12-06
_audit_creation_method            'Materials Studio'
_symmetry_space_group_name_H-M    'P-421M'
_symmetry_Int_Tables_number       113
_symmetry_cell_setting            tetragonal
loop_
_symmetry_equiv_pos_as_xyz
  x,y,z
  -x,-y,z
  y,-x,-z
  -y,x,-z
  -x+1/2,y+1/2,-z
  x+1/2,-y+1/2,-z
  -y+1/2,-x+1/2,z
  y+1/2,x+1/2,z
_cell_length_a                    5.5760
_cell_length_b                    5.5760
_cell_length_c                    4.6860
_cell_angle_alpha                 90.0000
_cell_angle_beta                  90.0000
_cell_angle_gamma                 90.0000
loop_
_atom_site_label
_atom_site_type_symbol
_atom_site_fract_x
_atom_site_fract_y
_atom_site_fract_z
_atom_site_U_iso_or_equiv
_atom_site_adp_type
_atom_site_occupancy
C1     C     0.00000   0.50000   0.32840   0.00000  Uiso   1.00
O2     O     0.00000   0.50000   0.59660   0.00000  Uiso   1.00
N3     N     0.14480   0.64480   0.17870   0.00000  Uiso   1.00
H4     H     0.26200   0.76200   0.29100   0.00000  Uiso   1.00
H5     H     0.12900   0.62900  -0.04200   0.00000  Uiso   1.00
loop_
_geom_bond_atom_site_label_1
_geom_bond_atom_site_label_2
_geom_bond_distance
_geom_bond_site_symmetry_2
_ccdc_geom_bond_type
C1     O2      1.257   .     D
C1     N3      1.340   .     S
C1     N3      1.340   2_565 S
N3     H4      1.064   .     S
N3     H5      1.042   .     S
